<?xml version="1.0" encoding="UTF-8"?>

<!-- generated on 2022-06-06 17:45:33 by Eclipse SUMO netedit Version 1.13.0
<configuration xmlns:xsi="http://www.w3.org/2001/XMLSchema-instance" xsi:noNamespaceSchemaLocation="http://sumo.dlr.de/xsd/netconvertConfiguration.xsd">

    <output>
        <output-file value="/home/theanhhoang/Desktop/AIM/SUMO/single_intersection.net.xml"/>
    </output>

    <processing>
        <offset.disable-normalization value="true"/>
    </processing>

    <junctions>
        <no-turnarounds value="true"/>
    </junctions>

    <report>
        <aggregate-warnings value="5"/>
    </report>

</configuration>
-->

<net version="1.9" junctionCornerDetail="5" limitTurnSpeed="5.50" xmlns:xsi="http://www.w3.org/2001/XMLSchema-instance" xsi:noNamespaceSchemaLocation="http://sumo.dlr.de/xsd/net_file.xsd">

    <location netOffset="0.00,0.00" convBoundary="0.00,0.00,100.00,100.00" origBoundary="10000000000.00,10000000000.00,-10000000000.00,-10000000000.00" projParameter="!"/>

    <edge id=":J0_0" function="internal">
        <lane id=":J0_0_0" index="0" speed="6.51" length="9.03" shape="45.20,60.40 44.85,57.95 43.80,56.20 42.05,55.15 39.60,54.80"/>
    </edge>
    <edge id=":J0_1" function="internal">
        <lane id=":J0_1_0" index="0" speed="13.89" length="20.80" shape="45.20,60.40 45.20,39.60"/>
        <lane id=":J0_1_1" index="1" speed="13.89" length="20.80" shape="48.40,60.40 48.40,39.60"/>
    </edge>
    <edge id=":J0_3" function="internal">
        <lane id=":J0_3_0" index="0" speed="9.26" length="5.01" shape="48.40,60.40 49.11,55.44"/>
    </edge>
    <edge id=":J0_16" function="internal">
        <lane id=":J0_16_0" index="0" speed="9.26" length="14.34" shape="49.11,55.44 49.15,55.15 51.40,51.40 55.15,49.15 60.40,48.40"/>
    </edge>
    <edge id=":J0_4" function="internal">
        <lane id=":J0_4_0" index="0" speed="6.51" length="9.03" shape="60.40,54.80 57.95,55.15 56.20,56.20 55.15,57.95 54.80,60.40"/>
    </edge>
    <edge id=":J0_5" function="internal">
        <lane id=":J0_5_0" index="0" speed="13.89" length="20.80" shape="60.40,54.80 39.60,54.80"/>
        <lane id=":J0_5_1" index="1" speed="13.89" length="20.80" shape="60.40,51.60 39.60,51.60"/>
    </edge>
    <edge id=":J0_7" function="internal">
        <lane id=":J0_7_0" index="0" speed="9.26" length="19.35" shape="60.40,51.60 55.15,50.85 51.40,48.60 49.15,44.85 48.40,39.60"/>
    </edge>
    <edge id=":J0_8" function="internal">
        <lane id=":J0_8_0" index="0" speed="6.51" length="9.03" shape="54.80,39.60 55.15,42.05 56.20,43.80 57.95,44.85 60.40,45.20"/>
    </edge>
    <edge id=":J0_9" function="internal">
        <lane id=":J0_9_0" index="0" speed="13.89" length="20.80" shape="54.80,39.60 54.80,60.40"/>
        <lane id=":J0_9_1" index="1" speed="13.89" length="20.80" shape="51.60,39.60 51.60,60.40"/>
    </edge>
    <edge id=":J0_11" function="internal">
        <lane id=":J0_11_0" index="0" speed="9.26" length="5.01" shape="51.60,39.60 50.89,44.56"/>
    </edge>
    <edge id=":J0_17" function="internal">
        <lane id=":J0_17_0" index="0" speed="9.26" length="14.34" shape="50.89,44.56 50.85,44.85 48.60,48.60 44.85,50.85 39.60,51.60"/>
    </edge>
    <edge id=":J0_12" function="internal">
        <lane id=":J0_12_0" index="0" speed="6.51" length="9.03" shape="39.60,45.20 42.05,44.85 43.80,43.80 44.85,42.05 45.20,39.60"/>
    </edge>
    <edge id=":J0_13" function="internal">
        <lane id=":J0_13_0" index="0" speed="13.89" length="20.80" shape="39.60,45.20 60.40,45.20"/>
        <lane id=":J0_13_1" index="1" speed="13.89" length="20.80" shape="39.60,48.40 60.40,48.40"/>
    </edge>
    <edge id=":J0_15" function="internal">
        <lane id=":J0_15_0" index="0" speed="9.26" length="19.35" shape="39.60,48.40 44.85,49.15 48.60,51.40 50.85,55.15 51.60,60.40"/>
    </edge>

    <edge id="-E0" from="J1" to="J0" priority="-1">
        <lane id="-E0_0" index="0" speed="13.89" length="39.60" shape="0.00,45.20 39.60,45.20"/>
        <lane id="-E0_1" index="1" speed="13.89" length="39.60" shape="0.00,48.40 39.60,48.40"/>
    </edge>
    <edge id="-E1" from="J0" to="J2" priority="-1">
        <lane id="-E1_0" index="0" speed="13.89" length="39.60" shape="54.80,60.40 54.80,100.00"/>
        <lane id="-E1_1" index="1" speed="13.89" length="39.60" shape="51.60,60.40 51.60,100.00"/>
    </edge>
    <edge id="-E2" from="J3" to="J0" priority="-1">
        <lane id="-E2_0" index="0" speed="13.89" length="39.60" shape="100.00,54.80 60.40,54.80"/>
        <lane id="-E2_1" index="1" speed="13.89" length="39.60" shape="100.00,51.60 60.40,51.60"/>
    </edge>
    <edge id="-E3" from="J4" to="J0" priority="-1">
        <lane id="-E3_0" index="0" speed="13.89" length="39.60" shape="54.80,0.00 54.80,39.60"/>
        <lane id="-E3_1" index="1" speed="13.89" length="39.60" shape="51.60,0.00 51.60,39.60"/>
    </edge>
    <edge id="E0" from="J0" to="J1" priority="-1">
        <lane id="E0_0" index="0" speed="13.89" length="39.60" shape="39.60,54.80 0.00,54.80"/>
        <lane id="E0_1" index="1" speed="13.89" length="39.60" shape="39.60,51.60 0.00,51.60"/>
    </edge>
    <edge id="E1" from="J2" to="J0" priority="-1">
        <lane id="E1_0" index="0" speed="13.89" length="39.60" shape="45.20,100.00 45.20,60.40"/>
        <lane id="E1_1" index="1" speed="13.89" length="39.60" shape="48.40,100.00 48.40,60.40"/>
    </edge>
    <edge id="E2" from="J0" to="J3" priority="-1">
        <lane id="E2_0" index="0" speed="13.89" length="39.60" shape="60.40,45.20 100.00,45.20"/>
        <lane id="E2_1" index="1" speed="13.89" length="39.60" shape="60.40,48.40 100.00,48.40"/>
    </edge>
    <edge id="E3" from="J0" to="J4" priority="-1">
        <lane id="E3_0" index="0" speed="13.89" length="39.60" shape="45.20,39.60 45.20,0.00"/>
        <lane id="E3_1" index="1" speed="13.89" length="39.60" shape="48.40,39.60 48.40,0.00"/>
    </edge>

    <junction id="J0" type="priority" x="50.00" y="50.00" incLanes="E1_0 E1_1 -E2_0 -E2_1 -E3_0 -E3_1 -E0_0 -E0_1" intLanes=":J0_0_0 :J0_1_0 :J0_1_1 :J0_16_0 :J0_4_0 :J0_5_0 :J0_5_1 :J0_7_0 :J0_8_0 :J0_9_0 :J0_9_1 :J0_17_0 :J0_12_0 :J0_13_0 :J0_13_1 :J0_15_0" shape="43.60,60.40 56.40,60.40 56.84,58.18 57.40,57.40 58.18,56.84 59.18,56.51 60.40,56.40 60.40,43.60 58.18,43.16 57.40,42.60 56.84,41.82 56.51,40.82 56.40,39.60 43.60,39.60 43.16,41.82 42.60,42.60 41.82,43.16 40.82,43.49 39.60,43.60 39.60,56.40 41.82,56.84 42.60,57.40 43.16,58.18 43.49,59.18" customShape="1">
        <request index="0"  response="0000000000000000" foes="0000000001100000" cont="0"/>
        <request index="1"  response="0000000000000000" foes="1111100011100000" cont="0"/>
        <request index="2"  response="0000000000000000" foes="1111100011100000" cont="0"/>
        <request index="3"  response="0000011000000000" foes="1110011011100000" cont="1"/>
        <request index="4"  response="0000011000000000" foes="0000011000000000" cont="0"/>
        <request index="5"  response="0000111000001111" foes="1000111000001111" cont="0"/>
        <request index="6"  response="0000111000001111" foes="1000111000001111" cont="0"/>
        <request index="7"  response="0110111000001110" foes="1110111000001110" cont="0"/>
        <request index="8"  response="0000000000000000" foes="0110000000000000" cont="0"/>
        <request index="9"  response="0000000000000000" foes="1110000011111000" cont="0"/>
        <request index="10" response="0000000000000000" foes="1110000011111000" cont="0"/>
        <request index="11" response="0000000000000110" foes="1110000011100110" cont="1"/>
        <request index="12" response="0000000000000110" foes="0000000000000110" cont="0"/>
        <request index="13" response="0000111100001110" foes="0000111110001110" cont="0"/>
        <request index="14" response="0000111100001110" foes="0000111110001110" cont="0"/>
        <request index="15" response="0000111011101110" foes="0000111011101110" cont="0"/>
    </junction>
    <junction id="J1" type="dead_end" x="0.00" y="50.00" incLanes="E0_0 E0_1" intLanes="" shape="0.00,50.00 0.00,56.40 0.00,50.00"/>
    <junction id="J2" type="dead_end" x="50.00" y="100.00" incLanes="-E1_0 -E1_1" intLanes="" shape="50.00,100.00 56.40,100.00 50.00,100.00"/>
    <junction id="J3" type="dead_end" x="100.00" y="50.00" incLanes="E2_0 E2_1" intLanes="" shape="100.00,50.00 100.00,43.60 100.00,50.00"/>
    <junction id="J4" type="dead_end" x="50.00" y="0.00" incLanes="E3_0 E3_1" intLanes="" shape="50.00,0.00 43.60,0.00 50.00,0.00"/>

    <junction id=":J0_16_0" type="internal" x="49.11" y="55.44" incLanes=":J0_3_0 -E3_0 -E3_1" intLanes=":J0_5_0 :J0_5_1 :J0_7_0 :J0_8_0 :J0_9_0 :J0_9_1 :J0_13_0 :J0_13_1 :J0_15_0"/>
    <junction id=":J0_17_0" type="internal" x="50.89" y="44.56" incLanes=":J0_11_0 E1_0 E1_1" intLanes=":J0_0_0 :J0_1_0 :J0_1_1 :J0_5_0 :J0_5_1 :J0_7_0 :J0_13_0 :J0_13_1 :J0_15_0"/>

    <connection from="-E0" to="E3" fromLane="0" toLane="0" via=":J0_12_0" dir="r" state="m"/>
    <connection from="-E0" to="E2" fromLane="0" toLane="0" via=":J0_13_0" dir="s" state="m"/>
    <connection from="-E0" to="E2" fromLane="1" toLane="1" via=":J0_13_1" dir="s" state="m"/>
    <connection from="-E0" to="-E1" fromLane="1" toLane="1" via=":J0_15_0" dir="l" state="m"/>
    <connection from="-E2" to="-E1" fromLane="0" toLane="0" via=":J0_4_0" dir="r" state="m"/>
    <connection from="-E2" to="E0" fromLane="0" toLane="0" via=":J0_5_0" dir="s" state="m"/>
    <connection from="-E2" to="E0" fromLane="1" toLane="1" via=":J0_5_1" dir="s" state="m"/>
    <connection from="-E2" to="E3" fromLane="1" toLane="1" via=":J0_7_0" dir="l" state="m"/>
    <connection from="-E3" to="E2" fromLane="0" toLane="0" via=":J0_8_0" dir="r" state="M"/>
    <connection from="-E3" to="-E1" fromLane="0" toLane="0" via=":J0_9_0" dir="s" state="M"/>
    <connection from="-E3" to="-E1" fromLane="1" toLane="1" via=":J0_9_1" dir="s" state="M"/>
    <connection from="-E3" to="E0" fromLane="1" toLane="1" via=":J0_11_0" dir="l" state="m"/>
    <connection from="E1" to="E0" fromLane="0" toLane="0" via=":J0_0_0" dir="r" state="M"/>
    <connection from="E1" to="E3" fromLane="0" toLane="0" via=":J0_1_0" dir="s" state="M"/>
    <connection from="E1" to="E3" fromLane="1" toLane="1" via=":J0_1_1" dir="s" state="M"/>
    <connection from="E1" to="E2" fromLane="1" toLane="1" via=":J0_3_0" dir="l" state="m"/>

    <connection from=":J0_0" to="E0" fromLane="0" toLane="0" dir="r" state="M"/>
    <connection from=":J0_1" to="E3" fromLane="0" toLane="0" dir="s" state="M"/>
    <connection from=":J0_1" to="E3" fromLane="1" toLane="1" dir="s" state="M"/>
    <connection from=":J0_3" to="E2" fromLane="0" toLane="1" via=":J0_16_0" dir="l" state="m"/>
    <connection from=":J0_16" to="E2" fromLane="0" toLane="1" dir="l" state="M"/>
    <connection from=":J0_4" to="-E1" fromLane="0" toLane="0" dir="r" state="M"/>
    <connection from=":J0_5" to="E0" fromLane="0" toLane="0" dir="s" state="M"/>
    <connection from=":J0_5" to="E0" fromLane="1" toLane="1" dir="s" state="M"/>
    <connection from=":J0_7" to="E3" fromLane="0" toLane="1" dir="l" state="M"/>
    <connection from=":J0_8" to="E2" fromLane="0" toLane="0" dir="r" state="M"/>
    <connection from=":J0_9" to="-E1" fromLane="0" toLane="0" dir="s" state="M"/>
    <connection from=":J0_9" to="-E1" fromLane="1" toLane="1" dir="s" state="M"/>
    <connection from=":J0_11" to="E0" fromLane="0" toLane="1" via=":J0_17_0" dir="l" state="m"/>
    <connection from=":J0_17" to="E0" fromLane="0" toLane="1" dir="l" state="M"/>
    <connection from=":J0_12" to="E3" fromLane="0" toLane="0" dir="r" state="M"/>
    <connection from=":J0_13" to="E2" fromLane="0" toLane="0" dir="s" state="M"/>
    <connection from=":J0_13" to="E2" fromLane="1" toLane="1" dir="s" state="M"/>
    <connection from=":J0_15" to="-E1" fromLane="0" toLane="1" dir="l" state="M"/>

</net>
